<additional>
   <laneAreaDetector id="0" lanes="D8_0 D8_1 D4_0 D4_1 D7_0 D7_1 D3_0 D3_1 D1_0 D1_1 D2_0 D2_1 D6_0 D6_1 D5_0 D5_1" freq="1" file="out.txt" jamThreshold="50.0"/>  
</additional>
