<?xml version="1.0" encoding="UTF-8"?>
<connections xmlns:xsi="http://www.w3.org/2001/XMLSchema-instance" 
 xsi:noNamespaceSchemaLocation="http://sumo.sf.net/xsd/connections_file.xsd">
</connections>
