<?xml version="1.0"?>

<routes xmlns:xsi="http://www.w3.org/2001/XMLSchema-instance" xsi:noNamespaceSchemaLocation="http://sumo.dlr.de/xsd/routes_file.xsd">

<vType id="type1" color="255,105,180"/>
<vType id="type0" color="0,255,255"/>

<route id="0" edges="D1 D4"/> 
<route id="1" edges="D1  D3"/> 
<route id="2" edges="D7  D5"/> 
<route id="3" edges="D7 D2"/> 
<route id="4" edges="D8 D5"/> 
<route id="5" edges="D8 D2"/> 
<route id="6" edges="D6 D3"/> 
<route id="7" edges="D6 D4"/> 
<route id="8" edges="D7  D4"/> 
<route id="9" edges="D8 D3"/> 
<route id="10" edges="D6 D5"/> 
<route id="11" edges="D1 D2"/> 

<vehicle id="0" depart="0" route="11" type="type0"/>
<vehicle id="1" depart="4" route="8" type="type1"/>
<vehicle id="2" depart="5" route="5" type="type0"/>
<vehicle id="3" depart="5" route="5" type="type1"/>
<vehicle id="4" depart="5" route="5" type="type0"/>
<vehicle id="5" depart="5" route="5" type="type1"/>
<vehicle id="6" depart="8" route="11" type="type0"/>
<vehicle id="7" depart="10" route="6" type="type1"/>
<vehicle id="8" depart="10" route="6" type="type0"/>
<vehicle id="9" depart="10" route="6" type="type1"/>
<vehicle id="10" depart="10" route="6" type="type0"/>
<vehicle id="11" depart="12" route="8" type="type1"/>
<vehicle id="12" depart="15" route="6" type="type0"/>
<vehicle id="13" depart="15" route="6" type="type1"/>
<vehicle id="14" depart="15" route="6" type="type0"/>
<vehicle id="15" depart="15" route="6" type="type1"/>
<vehicle id="16" depart="16" route="11" type="type0"/>
<vehicle id="17" depart="16" route="11" type="type1"/>
<vehicle id="18" depart="20" route="11" type="type0"/>
<vehicle id="19" depart="20" route="11" type="type1"/>
<vehicle id="20" depart="24" route="9" type="type0"/>
<vehicle id="21" depart="24" route="9" type="type1"/>
<vehicle id="22" depart="25" route="6" type="type0"/>
<vehicle id="23" depart="25" route="6" type="type1"/>
<vehicle id="24" depart="25" route="6" type="type0"/>
<vehicle id="25" depart="25" route="6" type="type1"/>
<vehicle id="26" depart="28" route="8" type="type0"/>
<vehicle id="27" depart="28" route="8" type="type1"/>
<vehicle id="28" depart="30" route="5" type="type0"/>
<vehicle id="29" depart="30" route="5" type="type1"/>
<vehicle id="30" depart="30" route="5" type="type0"/>
<vehicle id="31" depart="30" route="5" type="type1"/>
<vehicle id="32" depart="30" route="5" type="type0"/>
<vehicle id="33" depart="32" route="9" type="type1"/>
<vehicle id="34" depart="32" route="9" type="type0"/>
<vehicle id="35" depart="35" route="2" type="type1"/>
<vehicle id="36" depart="35" route="2" type="type0"/>
<vehicle id="37" depart="35" route="2" type="type1"/>
<vehicle id="38" depart="35" route="2" type="type0"/>
<vehicle id="39" depart="35" route="2" type="type1"/>
<vehicle id="40" depart="36" route="9" type="type0"/>
<vehicle id="41" depart="36" route="9" type="type1"/>
<vehicle id="42" depart="40" route="11" type="type0"/>
<vehicle id="43" depart="40" route="11" type="type1"/>
<vehicle id="44" depart="44" route="9" type="type0"/>
<vehicle id="45" depart="44" route="9" type="type1"/>
<vehicle id="46" depart="45" route="7" type="type0"/>
<vehicle id="47" depart="45" route="7" type="type1"/>
<vehicle id="48" depart="45" route="7" type="type0"/>
<vehicle id="49" depart="45" route="7" type="type1"/>
<vehicle id="50" depart="45" route="7" type="type0"/>
<vehicle id="51" depart="48" route="8" type="type1"/>
<vehicle id="52" depart="48" route="8" type="type0"/>
<vehicle id="53" depart="50" route="3" type="type1"/>
<vehicle id="54" depart="50" route="3" type="type0"/>
<vehicle id="55" depart="50" route="3" type="type1"/>
<vehicle id="56" depart="50" route="3" type="type0"/>
<vehicle id="57" depart="50" route="3" type="type1"/>
<vehicle id="58" depart="50" route="3" type="type0"/>
<vehicle id="59" depart="52" route="8" type="type1"/>
<vehicle id="60" depart="52" route="8" type="type0"/>
<vehicle id="61" depart="55" route="6" type="type1"/>
<vehicle id="62" depart="55" route="6" type="type0"/>
<vehicle id="63" depart="55" route="6" type="type1"/>
<vehicle id="64" depart="55" route="6" type="type0"/>
<vehicle id="65" depart="55" route="6" type="type1"/>
<vehicle id="66" depart="55" route="6" type="type0"/>
<vehicle id="67" depart="56" route="8" type="type1"/>
<vehicle id="68" depart="56" route="8" type="type0"/>
<vehicle id="69" depart="60" route="11" type="type1"/>
<vehicle id="70" depart="60" route="11" type="type0"/>
<vehicle id="71" depart="64" route="11" type="type1"/>
<vehicle id="72" depart="64" route="11" type="type0"/>
<vehicle id="73" depart="65" route="2" type="type1"/>
<vehicle id="74" depart="65" route="2" type="type0"/>
<vehicle id="75" depart="65" route="2" type="type1"/>
<vehicle id="76" depart="65" route="2" type="type0"/>
<vehicle id="77" depart="65" route="2" type="type1"/>
<vehicle id="78" depart="65" route="2" type="type0"/>
<vehicle id="79" depart="68" route="9" type="type1"/>
<vehicle id="80" depart="68" route="9" type="type0"/>
<vehicle id="81" depart="70" route="0" type="type1"/>
<vehicle id="82" depart="70" route="0" type="type0"/>
<vehicle id="83" depart="70" route="0" type="type1"/>
<vehicle id="84" depart="70" route="0" type="type0"/>
<vehicle id="85" depart="70" route="0" type="type1"/>
<vehicle id="86" depart="70" route="0" type="type0"/>
<vehicle id="87" depart="72" route="10" type="type1"/>
<vehicle id="88" depart="72" route="10" type="type0"/>
<vehicle id="89" depart="75" route="3" type="type1"/>
<vehicle id="90" depart="75" route="3" type="type0"/>
<vehicle id="91" depart="75" route="3" type="type1"/>
<vehicle id="92" depart="75" route="3" type="type0"/>
<vehicle id="93" depart="75" route="3" type="type1"/>
<vehicle id="94" depart="75" route="3" type="type0"/>
<vehicle id="95" depart="75" route="3" type="type1"/>
<vehicle id="96" depart="76" route="11" type="type0"/>
<vehicle id="97" depart="76" route="11" type="type1"/>
<vehicle id="98" depart="80" route="9" type="type0"/>
<vehicle id="99" depart="80" route="9" type="type1"/>
<vehicle id="100" depart="84" route="10" type="type0"/>
<vehicle id="101" depart="84" route="10" type="type1"/>
<vehicle id="102" depart="85" route="2" type="type0"/>
<vehicle id="103" depart="85" route="2" type="type1"/>
<vehicle id="104" depart="85" route="2" type="type0"/>
<vehicle id="105" depart="85" route="2" type="type1"/>
<vehicle id="106" depart="85" route="2" type="type0"/>
<vehicle id="107" depart="85" route="2" type="type1"/>
<vehicle id="108" depart="85" route="2" type="type0"/>
<vehicle id="109" depart="88" route="8" type="type1"/>
<vehicle id="110" depart="88" route="8" type="type0"/>
<vehicle id="111" depart="90" route="7" type="type1"/>
<vehicle id="112" depart="90" route="7" type="type0"/>
<vehicle id="113" depart="90" route="7" type="type1"/>
<vehicle id="114" depart="90" route="7" type="type0"/>
<vehicle id="115" depart="90" route="7" type="type1"/>
<vehicle id="116" depart="90" route="7" type="type0"/>
<vehicle id="117" depart="90" route="7" type="type1"/>
<vehicle id="118" depart="92" route="8" type="type0"/>
<vehicle id="119" depart="92" route="8" type="type1"/>
<vehicle id="120" depart="95" route="6" type="type0"/>
<vehicle id="121" depart="95" route="6" type="type1"/>
<vehicle id="122" depart="95" route="6" type="type0"/>
<vehicle id="123" depart="95" route="6" type="type1"/>
<vehicle id="124" depart="95" route="6" type="type0"/>
<vehicle id="125" depart="95" route="6" type="type1"/>
<vehicle id="126" depart="95" route="6" type="type0"/>
<vehicle id="127" depart="95" route="6" type="type1"/>
<vehicle id="128" depart="96" route="8" type="type0"/>
<vehicle id="129" depart="96" route="8" type="type1"/>
<vehicle id="130" depart="100" route="9" type="type0"/>
<vehicle id="131" depart="100" route="9" type="type1"/>
<vehicle id="132" depart="104" route="11" type="type0"/>
<vehicle id="133" depart="104" route="11" type="type1"/>
<vehicle id="134" depart="105" route="4" type="type0"/>
<vehicle id="135" depart="105" route="4" type="type1"/>
<vehicle id="136" depart="105" route="4" type="type0"/>
<vehicle id="137" depart="105" route="4" type="type1"/>
<vehicle id="138" depart="105" route="4" type="type0"/>
<vehicle id="139" depart="105" route="4" type="type1"/>
<vehicle id="140" depart="105" route="4" type="type0"/>
<vehicle id="141" depart="105" route="4" type="type1"/>
<vehicle id="142" depart="108" route="9" type="type0"/>
<vehicle id="143" depart="108" route="9" type="type1"/>
<vehicle id="144" depart="110" route="6" type="type0"/>
<vehicle id="145" depart="110" route="6" type="type1"/>
<vehicle id="146" depart="110" route="6" type="type0"/>
<vehicle id="147" depart="110" route="6" type="type1"/>
<vehicle id="148" depart="110" route="6" type="type0"/>
<vehicle id="149" depart="110" route="6" type="type1"/>
<vehicle id="150" depart="110" route="6" type="type0"/>
<vehicle id="151" depart="110" route="6" type="type1"/>
<vehicle id="152" depart="112" route="11" type="type0"/>
<vehicle id="153" depart="112" route="11" type="type1"/>
<vehicle id="154" depart="115" route="4" type="type0"/>
<vehicle id="155" depart="115" route="4" type="type1"/>
<vehicle id="156" depart="115" route="4" type="type0"/>
<vehicle id="157" depart="115" route="4" type="type1"/>
<vehicle id="158" depart="115" route="4" type="type0"/>
<vehicle id="159" depart="115" route="4" type="type1"/>
<vehicle id="160" depart="115" route="4" type="type0"/>
<vehicle id="161" depart="115" route="4" type="type1"/>
<vehicle id="162" depart="115" route="4" type="type0"/>
<vehicle id="163" depart="116" route="10" type="type1"/>
<vehicle id="164" depart="116" route="10" type="type0"/>
<vehicle id="165" depart="116" route="10" type="type1"/>
<vehicle id="166" depart="120" route="11" type="type0"/>
<vehicle id="167" depart="120" route="11" type="type1"/>
<vehicle id="168" depart="120" route="11" type="type0"/>
<vehicle id="169" depart="124" route="8" type="type1"/>
<vehicle id="170" depart="124" route="8" type="type0"/>
<vehicle id="171" depart="124" route="8" type="type1"/>
<vehicle id="172" depart="125" route="2" type="type0"/>
<vehicle id="173" depart="125" route="2" type="type1"/>
<vehicle id="174" depart="125" route="2" type="type0"/>
<vehicle id="175" depart="125" route="2" type="type1"/>
<vehicle id="176" depart="125" route="2" type="type0"/>
<vehicle id="177" depart="125" route="2" type="type1"/>
<vehicle id="178" depart="125" route="2" type="type0"/>
<vehicle id="179" depart="125" route="2" type="type1"/>
<vehicle id="180" depart="125" route="2" type="type0"/>
<vehicle id="181" depart="128" route="11" type="type1"/>
<vehicle id="182" depart="128" route="11" type="type0"/>
<vehicle id="183" depart="128" route="11" type="type1"/>
<vehicle id="184" depart="130" route="7" type="type0"/>
<vehicle id="185" depart="130" route="7" type="type1"/>
<vehicle id="186" depart="130" route="7" type="type0"/>
<vehicle id="187" depart="130" route="7" type="type1"/>
<vehicle id="188" depart="130" route="7" type="type0"/>
<vehicle id="189" depart="130" route="7" type="type1"/>
<vehicle id="190" depart="130" route="7" type="type0"/>
<vehicle id="191" depart="130" route="7" type="type1"/>
<vehicle id="192" depart="130" route="7" type="type0"/>
<vehicle id="193" depart="130" route="7" type="type1"/>
<vehicle id="194" depart="132" route="8" type="type0"/>
<vehicle id="195" depart="132" route="8" type="type1"/>
<vehicle id="196" depart="132" route="8" type="type0"/>
<vehicle id="197" depart="135" route="0" type="type1"/>
<vehicle id="198" depart="135" route="0" type="type0"/>
<vehicle id="199" depart="135" route="0" type="type1"/>
<vehicle id="200" depart="135" route="0" type="type0"/>
<vehicle id="201" depart="135" route="0" type="type1"/>
<vehicle id="202" depart="135" route="0" type="type0"/>
<vehicle id="203" depart="135" route="0" type="type1"/>
<vehicle id="204" depart="135" route="0" type="type0"/>
<vehicle id="205" depart="135" route="0" type="type1"/>
<vehicle id="206" depart="135" route="0" type="type0"/>
<vehicle id="207" depart="136" route="11" type="type1"/>
<vehicle id="208" depart="136" route="11" type="type0"/>
<vehicle id="209" depart="136" route="11" type="type1"/>
<vehicle id="210" depart="140" route="11" type="type0"/>
<vehicle id="211" depart="140" route="11" type="type1"/>
<vehicle id="212" depart="140" route="11" type="type0"/>
<vehicle id="213" depart="144" route="8" type="type1"/>
<vehicle id="214" depart="144" route="8" type="type0"/>
<vehicle id="215" depart="144" route="8" type="type1"/>
<vehicle id="216" depart="145" route="3" type="type0"/>
<vehicle id="217" depart="145" route="3" type="type1"/>
<vehicle id="218" depart="145" route="3" type="type0"/>
<vehicle id="219" depart="145" route="3" type="type1"/>
<vehicle id="220" depart="145" route="3" type="type0"/>
<vehicle id="221" depart="145" route="3" type="type1"/>
<vehicle id="222" depart="145" route="3" type="type0"/>
<vehicle id="223" depart="145" route="3" type="type1"/>
<vehicle id="224" depart="145" route="3" type="type0"/>
<vehicle id="225" depart="145" route="3" type="type1"/>
<vehicle id="226" depart="148" route="11" type="type0"/>
<vehicle id="227" depart="148" route="11" type="type1"/>
<vehicle id="228" depart="148" route="11" type="type0"/>
<vehicle id="229" depart="150" route="0" type="type1"/>
<vehicle id="230" depart="150" route="0" type="type0"/>
<vehicle id="231" depart="150" route="0" type="type1"/>
<vehicle id="232" depart="150" route="0" type="type0"/>
<vehicle id="233" depart="150" route="0" type="type1"/>
<vehicle id="234" depart="150" route="0" type="type0"/>
<vehicle id="235" depart="150" route="0" type="type1"/>
<vehicle id="236" depart="150" route="0" type="type0"/>
<vehicle id="237" depart="150" route="0" type="type1"/>
<vehicle id="238" depart="150" route="0" type="type0"/>
<vehicle id="239" depart="150" route="0" type="type1"/>
<vehicle id="240" depart="152" route="8" type="type0"/>
<vehicle id="241" depart="152" route="8" type="type1"/>
<vehicle id="242" depart="152" route="8" type="type0"/>
<vehicle id="243" depart="155" route="5" type="type1"/>
<vehicle id="244" depart="155" route="5" type="type0"/>
<vehicle id="245" depart="155" route="5" type="type1"/>
<vehicle id="246" depart="155" route="5" type="type0"/>
<vehicle id="247" depart="155" route="5" type="type1"/>
<vehicle id="248" depart="155" route="5" type="type0"/>
<vehicle id="249" depart="155" route="5" type="type1"/>
<vehicle id="250" depart="155" route="5" type="type0"/>
<vehicle id="251" depart="155" route="5" type="type1"/>
<vehicle id="252" depart="155" route="5" type="type0"/>
<vehicle id="253" depart="155" route="5" type="type1"/>
<vehicle id="254" depart="156" route="9" type="type0"/>
<vehicle id="255" depart="156" route="9" type="type1"/>
<vehicle id="256" depart="156" route="9" type="type0"/>
<vehicle id="257" depart="160" route="10" type="type1"/>
<vehicle id="258" depart="160" route="10" type="type0"/>
<vehicle id="259" depart="160" route="10" type="type1"/>
<vehicle id="260" depart="164" route="10" type="type0"/>
<vehicle id="261" depart="164" route="10" type="type1"/>
<vehicle id="262" depart="164" route="10" type="type0"/>
<vehicle id="263" depart="165" route="6" type="type1"/>
<vehicle id="264" depart="165" route="6" type="type0"/>
<vehicle id="265" depart="165" route="6" type="type1"/>
<vehicle id="266" depart="165" route="6" type="type0"/>
<vehicle id="267" depart="165" route="6" type="type1"/>
<vehicle id="268" depart="165" route="6" type="type0"/>
<vehicle id="269" depart="165" route="6" type="type1"/>
<vehicle id="270" depart="165" route="6" type="type0"/>
<vehicle id="271" depart="165" route="6" type="type1"/>
<vehicle id="272" depart="165" route="6" type="type0"/>
<vehicle id="273" depart="165" route="6" type="type1"/>
<vehicle id="274" depart="168" route="9" type="type0"/>
<vehicle id="275" depart="168" route="9" type="type1"/>
<vehicle id="276" depart="168" route="9" type="type0"/>
<vehicle id="277" depart="170" route="6" type="type1"/>
<vehicle id="278" depart="170" route="6" type="type0"/>
<vehicle id="279" depart="170" route="6" type="type1"/>
<vehicle id="280" depart="170" route="6" type="type0"/>
<vehicle id="281" depart="170" route="6" type="type1"/>
<vehicle id="282" depart="170" route="6" type="type0"/>
<vehicle id="283" depart="170" route="6" type="type1"/>
<vehicle id="284" depart="170" route="6" type="type0"/>
<vehicle id="285" depart="170" route="6" type="type1"/>
<vehicle id="286" depart="170" route="6" type="type0"/>
<vehicle id="287" depart="170" route="6" type="type1"/>
<vehicle id="288" depart="170" route="6" type="type0"/>
<vehicle id="289" depart="172" route="9" type="type1"/>
<vehicle id="290" depart="172" route="9" type="type0"/>
<vehicle id="291" depart="172" route="9" type="type1"/>
<vehicle id="292" depart="175" route="1" type="type0"/>
<vehicle id="293" depart="175" route="1" type="type1"/>
<vehicle id="294" depart="175" route="1" type="type0"/>
<vehicle id="295" depart="175" route="1" type="type1"/>
<vehicle id="296" depart="175" route="1" type="type0"/>
<vehicle id="297" depart="175" route="1" type="type1"/>
<vehicle id="298" depart="175" route="1" type="type0"/>
<vehicle id="299" depart="175" route="1" type="type1"/>
<vehicle id="300" depart="175" route="1" type="type0"/>
<vehicle id="301" depart="175" route="1" type="type1"/>
<vehicle id="302" depart="175" route="1" type="type0"/>
<vehicle id="303" depart="175" route="1" type="type1"/>
<vehicle id="304" depart="176" route="9" type="type0"/>
<vehicle id="305" depart="176" route="9" type="type1"/>
<vehicle id="306" depart="176" route="9" type="type0"/>
<vehicle id="307" depart="180" route="9" type="type1"/>
<vehicle id="308" depart="180" route="9" type="type0"/>
<vehicle id="309" depart="180" route="9" type="type1"/>
<vehicle id="310" depart="184" route="9" type="type0"/>
<vehicle id="311" depart="184" route="9" type="type1"/>
<vehicle id="312" depart="184" route="9" type="type0"/>
<vehicle id="313" depart="185" route="5" type="type1"/>
<vehicle id="314" depart="185" route="5" type="type0"/>
<vehicle id="315" depart="185" route="5" type="type1"/>
<vehicle id="316" depart="185" route="5" type="type0"/>
<vehicle id="317" depart="185" route="5" type="type1"/>
<vehicle id="318" depart="185" route="5" type="type0"/>
<vehicle id="319" depart="185" route="5" type="type1"/>
<vehicle id="320" depart="185" route="5" type="type0"/>
<vehicle id="321" depart="185" route="5" type="type1"/>
<vehicle id="322" depart="185" route="5" type="type0"/>
<vehicle id="323" depart="185" route="5" type="type1"/>
<vehicle id="324" depart="185" route="5" type="type0"/>
<vehicle id="325" depart="185" route="5" type="type1"/>
<vehicle id="326" depart="188" route="9" type="type0"/>
<vehicle id="327" depart="188" route="9" type="type1"/>
<vehicle id="328" depart="188" route="9" type="type0"/>
<vehicle id="329" depart="188" route="9" type="type1"/>
<vehicle id="330" depart="190" route="2" type="type0"/>
<vehicle id="331" depart="190" route="2" type="type1"/>
<vehicle id="332" depart="190" route="2" type="type0"/>
<vehicle id="333" depart="190" route="2" type="type1"/>
<vehicle id="334" depart="190" route="2" type="type0"/>
<vehicle id="335" depart="190" route="2" type="type1"/>
<vehicle id="336" depart="190" route="2" type="type0"/>
<vehicle id="337" depart="190" route="2" type="type1"/>
<vehicle id="338" depart="190" route="2" type="type0"/>
<vehicle id="339" depart="190" route="2" type="type1"/>
<vehicle id="340" depart="190" route="2" type="type0"/>
<vehicle id="341" depart="190" route="2" type="type1"/>
<vehicle id="342" depart="190" route="2" type="type0"/>
<vehicle id="343" depart="192" route="8" type="type1"/>
<vehicle id="344" depart="192" route="8" type="type0"/>
<vehicle id="345" depart="192" route="8" type="type1"/>
<vehicle id="346" depart="192" route="8" type="type0"/>
<vehicle id="347" depart="195" route="1" type="type1"/>
<vehicle id="348" depart="195" route="1" type="type0"/>
<vehicle id="349" depart="195" route="1" type="type1"/>
<vehicle id="350" depart="195" route="1" type="type0"/>
<vehicle id="351" depart="195" route="1" type="type1"/>
<vehicle id="352" depart="195" route="1" type="type0"/>
<vehicle id="353" depart="195" route="1" type="type1"/>
<vehicle id="354" depart="195" route="1" type="type0"/>
<vehicle id="355" depart="195" route="1" type="type1"/>
<vehicle id="356" depart="195" route="1" type="type0"/>
<vehicle id="357" depart="195" route="1" type="type1"/>
<vehicle id="358" depart="195" route="1" type="type0"/>
<vehicle id="359" depart="195" route="1" type="type1"/>
<vehicle id="360" depart="196" route="8" type="type0"/>
<vehicle id="361" depart="196" route="8" type="type1"/>
<vehicle id="362" depart="196" route="8" type="type0"/>
<vehicle id="363" depart="196" route="8" type="type1"/>
<vehicle id="364" depart="200" route="9" type="type0"/>
<vehicle id="365" depart="200" route="9" type="type1"/>
<vehicle id="366" depart="200" route="9" type="type0"/>
<vehicle id="367" depart="200" route="9" type="type1"/>
<vehicle id="368" depart="204" route="9" type="type0"/>
<vehicle id="369" depart="204" route="9" type="type1"/>
<vehicle id="370" depart="204" route="9" type="type0"/>
<vehicle id="371" depart="204" route="9" type="type1"/>
<vehicle id="372" depart="205" route="6" type="type0"/>
<vehicle id="373" depart="205" route="6" type="type1"/>
<vehicle id="374" depart="205" route="6" type="type0"/>
<vehicle id="375" depart="205" route="6" type="type1"/>
<vehicle id="376" depart="205" route="6" type="type0"/>
<vehicle id="377" depart="205" route="6" type="type1"/>
<vehicle id="378" depart="205" route="6" type="type0"/>
<vehicle id="379" depart="205" route="6" type="type1"/>
<vehicle id="380" depart="205" route="6" type="type0"/>
<vehicle id="381" depart="205" route="6" type="type1"/>
<vehicle id="382" depart="205" route="6" type="type0"/>
<vehicle id="383" depart="205" route="6" type="type1"/>
<vehicle id="384" depart="205" route="6" type="type0"/>
<vehicle id="385" depart="205" route="6" type="type1"/>
<vehicle id="386" depart="208" route="11" type="type0"/>
<vehicle id="387" depart="208" route="11" type="type1"/>
<vehicle id="388" depart="208" route="11" type="type0"/>
<vehicle id="389" depart="208" route="11" type="type1"/>
<vehicle id="390" depart="210" route="0" type="type0"/>
<vehicle id="391" depart="210" route="0" type="type1"/>
<vehicle id="392" depart="210" route="0" type="type0"/>
<vehicle id="393" depart="210" route="0" type="type1"/>
<vehicle id="394" depart="210" route="0" type="type0"/>
<vehicle id="395" depart="210" route="0" type="type1"/>
<vehicle id="396" depart="210" route="0" type="type0"/>
<vehicle id="397" depart="210" route="0" type="type1"/>
<vehicle id="398" depart="210" route="0" type="type0"/>
<vehicle id="399" depart="210" route="0" type="type1"/>
<vehicle id="400" depart="210" route="0" type="type0"/>
<vehicle id="401" depart="210" route="0" type="type1"/>
<vehicle id="402" depart="210" route="0" type="type0"/>
<vehicle id="403" depart="210" route="0" type="type1"/>
<vehicle id="404" depart="212" route="8" type="type0"/>
<vehicle id="405" depart="212" route="8" type="type1"/>
<vehicle id="406" depart="212" route="8" type="type0"/>
<vehicle id="407" depart="212" route="8" type="type1"/>
<vehicle id="408" depart="215" route="2" type="type0"/>
<vehicle id="409" depart="215" route="2" type="type1"/>
<vehicle id="410" depart="215" route="2" type="type0"/>
<vehicle id="411" depart="215" route="2" type="type1"/>
<vehicle id="412" depart="215" route="2" type="type0"/>
<vehicle id="413" depart="215" route="2" type="type1"/>
<vehicle id="414" depart="215" route="2" type="type0"/>
<vehicle id="415" depart="215" route="2" type="type1"/>
<vehicle id="416" depart="215" route="2" type="type0"/>
<vehicle id="417" depart="215" route="2" type="type1"/>
<vehicle id="418" depart="215" route="2" type="type0"/>
<vehicle id="419" depart="215" route="2" type="type1"/>
<vehicle id="420" depart="215" route="2" type="type0"/>
<vehicle id="421" depart="215" route="2" type="type1"/>
<vehicle id="422" depart="216" route="9" type="type0"/>
<vehicle id="423" depart="216" route="9" type="type1"/>
<vehicle id="424" depart="216" route="9" type="type0"/>
<vehicle id="425" depart="216" route="9" type="type1"/>
<vehicle id="426" depart="220" route="8" type="type0"/>
<vehicle id="427" depart="220" route="8" type="type1"/>
<vehicle id="428" depart="220" route="8" type="type0"/>
<vehicle id="429" depart="220" route="8" type="type1"/>
<vehicle id="430" depart="224" route="11" type="type0"/>
<vehicle id="431" depart="224" route="11" type="type1"/>
<vehicle id="432" depart="224" route="11" type="type0"/>
<vehicle id="433" depart="224" route="11" type="type1"/>
<vehicle id="434" depart="225" route="0" type="type0"/>
<vehicle id="435" depart="225" route="0" type="type1"/>
<vehicle id="436" depart="225" route="0" type="type0"/>
<vehicle id="437" depart="225" route="0" type="type1"/>
<vehicle id="438" depart="225" route="0" type="type0"/>
<vehicle id="439" depart="225" route="0" type="type1"/>
<vehicle id="440" depart="225" route="0" type="type0"/>
<vehicle id="441" depart="225" route="0" type="type1"/>
<vehicle id="442" depart="225" route="0" type="type0"/>
<vehicle id="443" depart="225" route="0" type="type1"/>
<vehicle id="444" depart="225" route="0" type="type0"/>
<vehicle id="445" depart="225" route="0" type="type1"/>
<vehicle id="446" depart="225" route="0" type="type0"/>
<vehicle id="447" depart="225" route="0" type="type1"/>
<vehicle id="448" depart="225" route="0" type="type0"/>
<vehicle id="449" depart="228" route="8" type="type1"/>
<vehicle id="450" depart="228" route="8" type="type0"/>
<vehicle id="451" depart="228" route="8" type="type1"/>
<vehicle id="452" depart="228" route="8" type="type0"/>
<vehicle id="453" depart="230" route="1" type="type1"/>
<vehicle id="454" depart="230" route="1" type="type0"/>
<vehicle id="455" depart="230" route="1" type="type1"/>
<vehicle id="456" depart="230" route="1" type="type0"/>
<vehicle id="457" depart="230" route="1" type="type1"/>
<vehicle id="458" depart="230" route="1" type="type0"/>
<vehicle id="459" depart="230" route="1" type="type1"/>
<vehicle id="460" depart="230" route="1" type="type0"/>
<vehicle id="461" depart="230" route="1" type="type1"/>
<vehicle id="462" depart="230" route="1" type="type0"/>
<vehicle id="463" depart="230" route="1" type="type1"/>
<vehicle id="464" depart="230" route="1" type="type0"/>
<vehicle id="465" depart="230" route="1" type="type1"/>
<vehicle id="466" depart="230" route="1" type="type0"/>
<vehicle id="467" depart="230" route="1" type="type1"/>
<vehicle id="468" depart="232" route="9" type="type0"/>
<vehicle id="469" depart="232" route="9" type="type1"/>
<vehicle id="470" depart="232" route="9" type="type0"/>
<vehicle id="471" depart="232" route="9" type="type1"/>
<vehicle id="472" depart="235" route="0" type="type0"/>
<vehicle id="473" depart="235" route="0" type="type1"/>
<vehicle id="474" depart="235" route="0" type="type0"/>
<vehicle id="475" depart="235" route="0" type="type1"/>
<vehicle id="476" depart="235" route="0" type="type0"/>
<vehicle id="477" depart="235" route="0" type="type1"/>
<vehicle id="478" depart="235" route="0" type="type0"/>
<vehicle id="479" depart="235" route="0" type="type1"/>
<vehicle id="480" depart="235" route="0" type="type0"/>
<vehicle id="481" depart="235" route="0" type="type1"/>
<vehicle id="482" depart="235" route="0" type="type0"/>
<vehicle id="483" depart="235" route="0" type="type1"/>
<vehicle id="484" depart="235" route="0" type="type0"/>
<vehicle id="485" depart="235" route="0" type="type1"/>
<vehicle id="486" depart="235" route="0" type="type0"/>
<vehicle id="487" depart="236" route="9" type="type1"/>
<vehicle id="488" depart="236" route="9" type="type0"/>
<vehicle id="489" depart="236" route="9" type="type1"/>
<vehicle id="490" depart="236" route="9" type="type0"/>
<vehicle id="491" depart="240" route="10" type="type1"/>
<vehicle id="492" depart="240" route="10" type="type0"/>
<vehicle id="493" depart="240" route="10" type="type1"/>
<vehicle id="494" depart="240" route="10" type="type0"/>
<vehicle id="495" depart="244" route="8" type="type1"/>
<vehicle id="496" depart="244" route="8" type="type0"/>
<vehicle id="497" depart="244" route="8" type="type1"/>
<vehicle id="498" depart="244" route="8" type="type0"/>
<vehicle id="499" depart="245" route="3" type="type1"/>
<vehicle id="500" depart="245" route="3" type="type0"/>
<vehicle id="501" depart="245" route="3" type="type1"/>
<vehicle id="502" depart="245" route="3" type="type0"/>
<vehicle id="503" depart="245" route="3" type="type1"/>
<vehicle id="504" depart="245" route="3" type="type0"/>
<vehicle id="505" depart="245" route="3" type="type1"/>
<vehicle id="506" depart="245" route="3" type="type0"/>
<vehicle id="507" depart="245" route="3" type="type1"/>
<vehicle id="508" depart="245" route="3" type="type0"/>
<vehicle id="509" depart="245" route="3" type="type1"/>
<vehicle id="510" depart="245" route="3" type="type0"/>
<vehicle id="511" depart="245" route="3" type="type1"/>
<vehicle id="512" depart="245" route="3" type="type0"/>
<vehicle id="513" depart="245" route="3" type="type1"/>
<vehicle id="514" depart="245" route="3" type="type0"/>
<vehicle id="515" depart="248" route="9" type="type1"/>
<vehicle id="516" depart="248" route="9" type="type0"/>
<vehicle id="517" depart="248" route="9" type="type1"/>
<vehicle id="518" depart="248" route="9" type="type0"/>
<vehicle id="519" depart="248" route="9" type="type1"/>
<vehicle id="520" depart="250" route="3" type="type0"/>
<vehicle id="521" depart="250" route="3" type="type1"/>
<vehicle id="522" depart="250" route="3" type="type0"/>
<vehicle id="523" depart="250" route="3" type="type1"/>
<vehicle id="524" depart="250" route="3" type="type0"/>
<vehicle id="525" depart="250" route="3" type="type1"/>
<vehicle id="526" depart="250" route="3" type="type0"/>
<vehicle id="527" depart="250" route="3" type="type1"/>