<?xml version="1.0" encoding="UTF-8"?>
<nodes xmlns:xsi="http://www.w3.org/2001/XMLSchema-instance"
 xsi:noNamespaceSchemaLocation="http://sumo.sf.net/xsd/nodes_file.xsd">
<node id="92" x="-750.0" y="0.0" />
<node id="3" x="+0.0" y="0.0" />
<node id="93" x="750.0" y="0.0" />
<node id="6" x="0.0" y="+750.0" />
<node id="96" x="0.0" y="-750.0" />
</nodes>



